psse/psse-converter/src/test/resources/five_bus_nodeBreaker_rev35_split_buses_exported.raw
0,100.0,35,0.0,0.0,60.0
 17/04/24 UW ARCHIVE           100.0  1962 W Five Bus nodeBreaker Test Case

0 / END OF SYSTEM-WIDE DATA, BEGIN BUS DATA
1,'Bus 1       ',138.0,1,1,1,1,1.0,0.0
2,'Bus 2       ',138.0,1,1,1,1,1.0,0.0
3,'Bus 3       ',45.0,1,1,1,1,1.0,0.0
4,'Bus 4       ',21.0,1,1,1,1,1.0,0.0
5,'Bus 5       ',138.0,1,1,1,1,1.0,0.0
6,'Bus 1-6     ',138.0,3,1,1,1,1.0,0.0
7,'Bus 2-7     ',138.0,1,1,1,1,1.0,0.0
8,'Bus 2-8     ',138.0,1,1,1,1,1.0,0.0
9,'Bus 3-9     ',45.0,1,1,1,1,1.0,0.0
10,'Bus 3-10    ',45.0,1,1,1,1,1.0,0.0
11,'Bus 4-11    ',21.0,1,1,1,1,1.0,0.0
12,'Bus 4-12    ',21.0,1,1,1,1,1.0,0.0
13,'Bus 5-13    ',138.0,1,1,1,1,1.0,0.0
14,'Bus 5-14    ',138.0,1,1,1,1,1.0,0.0
0 / END OF BUS DATA, BEGIN LOAD DATA
8,'1 ',0,1,1,21.7,12.7,0.0,0.0,0.0,-0.0,1,1
10,'1 ',0,1,1,94.2,19.0,0.0,0.0,0.0,-0.0,1,1
12,'1 ',0,1,1,47.8,-3.9,0.0,0.0,0.0,-0.0,1,1
14,'1 ',0,1,1,7.6,1.6,0.0,0.0,0.0,-0.0,1,1
0 / END OF LOAD DATA, BEGIN FIXED SHUNT DATA
7,'1 ',1,0.0,19.0
0 / END OF FIXED SHUNT DATA, BEGIN GENERATOR DATA
6,'1 ',232.392,-16.549,0.0,0.0,1.06,1,2,615.0,0.0,1.0,0.0,0.0,1.0,1,100.0,10000.0,-10000.0,0,1,1.0,0,1.0,0,1.0,0,1.0,0,1.0
0 / END OF GENERATOR DATA, BEGIN BRANCH DATA
1,2,'1 ',0.01938,0.05917,0.0528,' ',0.0,0.0,0.0,0.0,0.0,0.0,0.0,0.0,0.0,0.0,0.0,0.0,0.0,0.0,0.0,0.0,1,1,0.0,1,1.0,0,1.0,0,1.0,0,1.0
0 / END OF BRANCH DATA, BEGIN SYSTEM SWITCHING DEVICE DATA
0 / END OF SYSTEM SWITCHING DEVICE DATA, BEGIN TRANSFORMER DATA
1,3,0,'1 ',1,1,1,0.0,0.0,2,'2WT         ',1,1,1.0,0,1.0,0,1.0,0,1.0
0.0,0.20912,100.0
0.978,0.0,0.0,0.0,0.0,0.0,0.0,0.0,0.0,0.0,0.0,0.0,0.0,0.0,0.0,1,9,2,1.5,0.51,1.5,0.51,3,0,0.0,0.0
1.0,0.0
1,3,4,'1 ',1,1,1,0.0,0.0,2,'3WT         ',1,1,1.0,0,1.0,0,1.0,0,1.0
334279.0,0.13432,440.0,262298.0,0.20807,280.0,1515.0,0.10652,160.0,1.0,0.0
0.978,138.0,0.0,0.0,0.0,0.0,0.0,0.0,0.0,0.0,0.0,0.0,0.0,0.0,0.0,0,0,0,1.5,0.51,1.5,0.51,3,0,0.0,0.0
0.988,45.0,0.0,0.0,0.0,0.0,0.0,0.0,0.0,0.0,0.0,0.0,0.0,0.0,0.0,0,0,0,1.5,0.51,1.5,0.51,3,0,0.0,0.0
0.9980000000000001,21.0,0.0,0.0,0.0,0.0,0.0,0.0,0.0,0.0,0.0,0.0,0.0,0.0,0.0,1,11,2,1.5,0.51,1.5,0.51,3,0,0.0,0.0
0 / END OF TRANSFORMER DATA, BEGIN AREA DATA
0 / END OF AREA DATA, BEGIN TWO-TERMINAL DC DATA
'EATL P1     ',1,7.365,0.0,500.0,0.0,7.365,0.1,'R',0.0,50,1.0
6,1,17.3,12.7,0.48,21.32,500.0,0.832,1.1,1.2,0.975,0.0125,0,0,0,0,'1 ',0.0
5,1,20.5,18.0,0.48,21.32,240.0,1.7325,1.1419,1.2064,0.8968,0.0129,0,0,0,0,'1 ',0.0
0 / END OF TWO-TERMINAL DC DATA, BEGIN VOLTAGE SOURCE CONVERTER DATA
0 / END OF VOLTAGE SOURCE CONVERTER DATA, BEGIN IMPEDANCE CORRECTION DATA
0 / END OF IMPEDANCE CORRECTION DATA, BEGIN MULTI-TERMINAL DC DATA
0 / END OF MULTI-TERMINAL DC DATA, BEGIN MULTI-SECTION LINE DATA
0 / END OF MULTI-SECTION LINE DATA, BEGIN ZONE DATA
0 / END OF ZONE DATA, BEGIN INTER-AREA TRANSFER DATA
0 / END OF INTER-AREA TRANSFER DATA, BEGIN OWNER DATA
0 / END OF OWNER DATA, BEGIN FACTS CONTROL DEVICE DATA
0 / END OF FACTS CONTROL DEVICE DATA, BEGIN SWITCHED SHUNT DATA
13,'1 ',0,0,1,1.0,0.99,13,2,100.0,'        ',100.0,1,1,100.0
0 / END OF SWITCHED SHUNT DATA, BEGIN GNE DEVICE DATA
0 / END OF GNE DEVICE DATA, BEGIN INDUCTION MACHINE DATA
0 / END OF INDUCTION MACHINE DATA, BEGIN SUBSTATION DATA
1,'STATION 1',0.0,0.0,0.1
  /  BEGIN SUBSTATION NODE DATA
1,'NB1',6,1,1.0,0.0
2,'NB2',1,1,1.0,0.0
3,'NLINE',1,1,1.0,0.0
4,'NT2W',1,1,1.0,0.0
5,'NT3W',1,1,1.0,0.0
6,'NDCLINE',6,1,1.0,0.0
7,'NGEN',6,1,1.0,0.0
0 /  END OF SUBSTATION NODE DATA, BEGIN SUBSTATION SWITCHING DEVICE DATA
1,2,'1 ','Sw-BusBars',2,0,1,0.0,0.0,0.0,0.0
2,3,'1 ','Sw-LineToBus2',2,1,1,0.0,0.0,0.0,0.0
2,4,'1 ','Sw-T2wToBus3',2,1,1,0.0,0.0,0.0,0.0
2,5,'1 ','Sw-T3wToBus3Bus4',2,1,1,0.0,0.0,0.0,0.0
1,6,'1 ','Sw-LineDcToBus5',2,1,1,0.0,0.0,0.0,0.0
1,7,'1 ','Sw-Gen',2,1,1,0.0,0.0,0.0,0.0
0 /  END OF SUBSTATION SWITCHING DEVICE DATA, BEGIN SUBSTATION EQUIPMENT TERMINAL DATA
6,7,'M','1 '
6,6,'D','EATL P1     '
1,3,'B',2,'1 '
1,4,'2',3,'1 '
1,5,'3',3,4,'1 '
0 /  END OF SUBSTATION EQUIPMENT TERMINAL DATA
2,'STATION 2',0.0,0.0,0.1
  /  BEGIN SUBSTATION NODE DATA
1,'NB1',2,1,1.0,0.0
2,'NB2',7,1,1.0,0.0
3,'NLINE',2,1,1.0,0.0
4,'NLOAD',8,1,1.0,0.0
5,'NFSHUNT',7,1,1.0,0.0
0 /  END OF SUBSTATION NODE DATA, BEGIN SUBSTATION SWITCHING DEVICE DATA
1,2,'1 ','Sw-BusBars',2,0,1,0.0,0.0,0.0,0.0
1,3,'1 ','Sw-LineToBus1',2,1,1,0.0,0.0,0.0,0.0
1,4,'1 ','Sw-Load',2,0,1,0.0,0.0,0.0,0.0
2,5,'1 ','Sw-FixedShunt',2,1,1,0.0,0.0,0.0,0.0
0 /  END OF SUBSTATION SWITCHING DEVICE DATA, BEGIN SUBSTATION EQUIPMENT TERMINAL DATA
8,4,'L','1 '
7,5,'F','1 '
2,3,'B',1,'1 '
0 /  END OF SUBSTATION EQUIPMENT TERMINAL DATA
3,'STATION 3',0.0,0.0,0.1
  /  BEGIN SUBSTATION NODE DATA
1,'NB1',3,1,1.0,0.0
2,'NB2',9,1,1.0,0.0
3,'NT2W',3,1,1.0,0.0
4,'NT3W',3,1,1.0,0.0
5,'NLOAD',10,1,1.0,0.0
0 /  END OF SUBSTATION NODE DATA, BEGIN SUBSTATION SWITCHING DEVICE DATA
1,2,'1 ','Sw-BusBars',2,0,1,0.0,0.0,0.0,0.0
1,3,'1 ','Sw-T2w',2,1,1,0.0,0.0,0.0,0.0
1,4,'1 ','Sw-T3w',2,1,1,0.0,0.0,0.0,0.0
2,5,'1 ','Sw-Load',2,0,1,0.0,0.0,0.0,0.0
0 /  END OF SUBSTATION SWITCHING DEVICE DATA, BEGIN SUBSTATION EQUIPMENT TERMINAL DATA
10,5,'L','1 '
3,3,'2',1,'1 '
3,4,'3',1,4,'1 '
0 /  END OF SUBSTATION EQUIPMENT TERMINAL DATA
4,'STATION 4',0.0,0.0,0.1
  /  BEGIN SUBSTATION NODE DATA
1,'NB1',4,1,1.0,0.0
2,'NB2',11,1,1.0,0.0
3,'NT3W',4,1,1.0,0.0
4,'NLOAD',12,1,1.0,0.0
0 /  END OF SUBSTATION NODE DATA, BEGIN SUBSTATION SWITCHING DEVICE DATA
1,2,'1 ','Sw-BusBars',2,0,1,0.0,0.0,0.0,0.0
1,3,'1 ','Sw-T3w',2,1,1,0.0,0.0,0.0,0.0
2,4,'1 ','Sw-Load',2,0,1,0.0,0.0,0.0,0.0
0 /  END OF SUBSTATION SWITCHING DEVICE DATA, BEGIN SUBSTATION EQUIPMENT TERMINAL DATA
12,4,'L','1 '
4,3,'3',1,3,'1 '
0 /  END OF SUBSTATION EQUIPMENT TERMINAL DATA
5,'STATION 5',0.0,0.0,0.1
  /  BEGIN SUBSTATION NODE DATA
1,'NB1',5,1,1.0,0.0
2,'NB2',13,1,1.0,0.0
3,'NDCLINE',5,1,1.0,0.0
4,'NLOAD',14,1,1.0,0.0
5,'NSSHUNT',13,1,1.0,0.0
0 /  END OF SUBSTATION NODE DATA, BEGIN SUBSTATION SWITCHING DEVICE DATA
1,2,'1 ','Sw-BusBars',2,0,1,0.0,0.0,0.0,0.0
1,3,'1 ','Sw-DcLine',2,1,1,0.0,0.0,0.0,0.0
1,4,'1 ','Sw-Load',2,0,1,0.0,0.0,0.0,0.0
2,5,'1 ','Sw-SwitchedShunt',2,1,1,0.0,0.0,0.0,0.0
0 /  END OF SUBSTATION SWITCHING DEVICE DATA, BEGIN SUBSTATION EQUIPMENT TERMINAL DATA
14,4,'L','1 '
13,5,'S','1 '
5,3,'D','EATL P1     '
0 /  END OF SUBSTATION EQUIPMENT TERMINAL DATA
0 / END OF SUBSTATION DATA
Q
